
 OpenBabel10161712363D

 11 11  0  0  0  0  0  0  0  0999 V2000
   -1.3964   -0.0761   -0.0176 C   0  0  0  0  0  0  0  0  0  0  0  0
   -0.7590    1.1599    0.0107 C   0  0  0  0  0  0  0  0  0  0  0  0
    0.6259    1.1826    0.0551 C   0  0  0  0  0  0  0  0  0  0  0  0
    1.3954    0.0724    0.0726 N   0  0  0  0  0  0  0  0  0  0  0  0
    0.7484   -1.1131    0.0443 C   0  0  0  0  0  0  0  0  0  0  0  0
   -0.6311   -1.2375   -0.0006 C   0  0  0  0  0  0  0  0  0  0  0  0
   -2.4804   -0.1338   -0.0526 H   0  0  0  0  0  0  0  0  0  0  0  0
   -1.3267    2.0833   -0.0016 H   0  0  0  0  0  0  0  0  0  0  0  0
    1.1697    2.1225    0.0785 H   0  0  0  0  0  0  0  0  0  0  0  0
    1.3891   -1.9900    0.0592 H   0  0  0  0  0  0  0  0  0  0  0  0
   -1.0973   -2.2159   -0.0217 H   0  0  0  0  0  0  0  0  0  0  0  0
  1  2  2  0  0  0  0
  1  6  1  0  0  0  0
  1  7  1  0  0  0  0
  2  3  1  0  0  0  0
  2  8  1  0  0  0  0
  3  4  2  0  0  0  0
  3  9  1  0  0  0  0
  4  5  1  0  0  0  0
  5  6  2  0  0  0  0
  5 10  1  0  0  0  0
  6 11  1  0  0  0  0
M  END
